37
ZnC20N4H12
C        2.930175000      3.123387000     -0.317477000
C        1.710542000      3.765452000     -0.381652000
C        0.711934000      2.730079000     -0.070909000
C        2.672975000      1.693409000      0.007835000
N        1.325531000      1.511367000      0.175354000
C        2.672973000     -1.693405000      0.007770000
N        1.325524000     -1.511351000      0.175301000
C        0.711930000     -2.730069000     -0.070864000
C        2.930174000     -3.123388000     -0.317497000
C        1.710539000     -3.765458000     -0.381562000
C       -0.711935000     -2.730080000     -0.070906000
N       -1.325532000     -1.511370000      0.175281000
C       -2.930176000     -3.123386000     -0.317510000
C       -1.710543000     -3.765454000     -0.381671000
C       -2.672974000      1.693405000      0.007788000
N       -1.325528000      1.511347000      0.175315000
C       -0.711929000      2.730064000     -0.070854000
C       -1.710538000      3.765457000     -0.381441000
C       -2.930176000      3.123390000     -0.317426000
C       -2.672977000     -1.693409000      0.007804000
C       -3.679160000     -0.698871000      0.027200000
C       -3.679164000      0.698870000      0.027183000
H        1.524249000     -4.838565000     -0.631222000
H        3.918338000     -3.582700000     -0.511211000
H        3.918333000      3.582706000     -0.511181000
H        1.524276000      4.838552000     -0.631359000
H       -3.918328000     -3.582709000     -0.511231000
H       -1.524285000     -4.838553000     -0.631367000
H       -4.684268000     -1.132925000     -0.058739000
H       -4.684272000      1.132918000     -0.058798000
H       -3.918341000      3.582703000     -0.511080000
H       -1.524233000      4.838568000     -0.631020000
Zn       0.000002000      0.000002000      0.463710000
C        3.679160000     -0.698867000      0.027174000
C        3.679164000      0.698872000      0.027227000
H        4.684270000     -1.132921000     -0.058781000
H        4.684270000      1.132923000     -0.058749000
