37
ZnC20N4H12
C        2.930229000      3.123451000     -0.277309000
C        1.710580000      3.765500000      0.310980000
C        0.711950000      2.730073000      0.193941000
C        2.673069000      1.693433000     -0.186051000
N        1.325603000      1.511375000      0.056232000
C        2.673035000     -1.693445000     -0.186082000
N        1.325570000     -1.511367000      0.056197000
C        0.711946000     -2.730067000      0.193984000
C        2.930196000     -3.123436000     -0.277265000
C        1.710537000     -3.765462000      0.311110000
C       -0.711949000     -2.730082000     -0.193974000
N       -1.325550000     -1.511370000     -0.056221000
C       -2.930208000     -3.123400000      0.277238000
C       -1.710555000     -3.765452000     -0.311163000
C       -2.673046000      1.693417000      0.186110000
N       -1.325592000      1.511381000     -0.056135000
C       -0.711949000      2.730094000     -0.193896000
C       -1.710600000      3.765487000     -0.310909000
C       -2.930246000      3.123420000      0.277360000
C       -2.673017000     -1.693431000      0.186082000
C       -3.679222000     -0.698887000     -0.143834000
C       -3.679238000      0.698850000     -0.143829000
H        1.524219000     -4.838559000      0.593680000
H        3.918342000     -3.582790000     -0.530211000
H        3.918367000      3.582814000     -0.530271000
H        1.524306000      4.838618000      0.593485000
H       -3.918366000     -3.582725000      0.530185000
H       -1.524263000     -4.838543000     -0.593757000
H       -4.684328000     -1.132955000     -0.310997000
H       -4.684354000      1.132886000     -0.311018000
H       -3.918387000      3.582761000      0.530372000
H       -1.524363000      4.838614000     -0.593406000
Zn      -0.000002000     -0.000010000     -0.000222000
C        3.679228000     -0.698905000      0.143736000
C        3.679252000      0.698866000      0.143783000
H        4.684326000     -1.132953000      0.311031000
H        4.684364000      1.132891000      0.311039000
