37
ZnC20N4H12
C        2.930195000      3.123355000      0.282085000
C        1.710594000      3.765474000     -0.170812000
C        0.711934000      2.730139000     -0.187533000
C        2.672911000      1.693391000      0.235479000
N        1.325473000      1.511379000      0.130772000
C        2.673021000     -1.693389000      0.235564000
N        1.325574000     -1.511295000      0.130601000
C        0.711928000     -2.729975000     -0.187636000
C        2.930154000     -3.123374000      0.282213000
C        1.710483000     -3.765392000     -0.170900000
C       -0.711943000     -2.729988000     -0.187518000
N       -1.325588000     -1.511308000      0.130735000
C       -2.930168000     -3.123406000      0.282030000
C       -1.710491000     -3.765406000     -0.170829000
C       -2.672914000      1.693387000      0.235612000
N       -1.325470000      1.511391000      0.130697000
C       -0.711919000      2.730136000     -0.187598000
C       -1.710576000      3.765493000     -0.170807000
C       -2.930180000      3.123370000      0.282254000
C       -2.673033000     -1.693421000      0.235454000
C       -3.679210000     -0.698873000     -0.241890000
C       -3.679114000      0.698860000     -0.241713000
H        1.524159000     -4.838493000     -0.373920000
H        3.918286000     -3.582744000      0.477375000
H        3.918385000      3.582600000      0.477115000
H        1.524348000      4.838578000     -0.373741000
H       -3.918306000     -3.582773000      0.477017000
H       -1.524137000     -4.838489000     -0.373761000
H       -4.684346000     -1.132885000     -0.598021000
H       -4.684208000      1.132958000     -0.597712000
H       -3.918353000      3.582645000      0.477430000
H       -1.524361000      4.838618000     -0.373796000
Zn       0.000002000     -0.000112000     -0.021068000
C        3.679200000     -0.698845000     -0.241716000
C        3.679128000      0.698880000     -0.241863000
H        4.684334000     -1.132873000     -0.597649000
H        4.684220000      1.132981000     -0.597997000
