37
ZnC20N4H12
C        2.930241000      3.123461000     -0.104543000
C        1.710596000      3.765498000     -0.197976000
C        0.712008000      2.730087000      0.156499000
C        2.673055000      1.693473000      0.291745000
N        1.325625000      1.511387000      0.556960000
C        2.672897000     -1.693317000     -0.291658000
N        1.325440000     -1.511307000     -0.556729000
C        0.711868000     -2.730045000     -0.156358000
C        2.930120000     -3.123278000      0.104493000
C        1.710503000     -3.765382000      0.197936000
C       -0.711999000     -2.730092000      0.156582000
N       -1.325622000     -1.511402000      0.556961000
C       -2.930232000     -3.123474000     -0.104706000
C       -1.710587000     -3.765506000     -0.198043000
C       -2.672896000      1.693325000     -0.291580000
N       -1.325440000      1.511321000     -0.556753000
C       -0.711861000      2.730050000     -0.156450000
C       -1.710500000      3.765391000      0.197975000
C       -2.930112000      3.123290000      0.104598000
C       -2.673053000     -1.693485000      0.291688000
C       -3.679212000     -0.698925000      0.123022000
C       -3.679118000      0.698814000     -0.122993000
H        1.524261000     -4.838489000      0.597064000
H        3.918286000     -3.582570000      0.383789000
H        3.918391000      3.582800000     -0.383929000
H        1.524304000      4.838586000     -0.597199000
H       -3.918372000     -3.582819000     -0.384223000
H       -1.524301000     -4.838595000     -0.597297000
H       -4.684340000     -1.132927000      0.106179000
H       -4.684196000      1.132920000     -0.106094000
H       -3.918275000      3.582581000      0.384006000
H       -1.524267000      4.838490000      0.597108000
Zn      -0.000012000      0.000002000     -0.000316000
C        3.679120000     -0.698811000     -0.123106000
C        3.679220000      0.698924000      0.123045000
H        4.684198000     -1.132923000     -0.106251000
H        4.684344000      1.132925000      0.106203000
