37
ZnC20N4H12
C        2.930177000      3.123397000      0.307771000
C        1.710534000      3.765458000      0.111030000
C        0.711930000      2.730065000     -0.340633000
C        2.672979000      1.693417000     -0.029033000
N        1.325531000      1.511347000     -0.443898000
C        2.672955000     -1.693397000      0.029000000
N        1.325514000     -1.511347000      0.443787000
C        0.711924000     -2.730071000      0.340678000
C        2.930168000     -3.123378000     -0.307603000
C        1.710537000     -3.765454000     -0.110836000
C       -0.711933000     -2.730078000      0.340588000
N       -1.325526000     -1.511364000      0.443785000
C       -2.930174000     -3.123382000     -0.307832000
C       -1.710547000     -3.765452000     -0.111161000
C       -2.672982000      1.693411000     -0.028918000
N       -1.325532000      1.511367000     -0.443627000
C       -0.711933000      2.730072000     -0.340532000
C       -1.710538000      3.765451000      0.111039000
C       -2.930174000      3.123390000      0.307690000
C       -2.672969000     -1.693399000      0.028996000
C       -3.679154000     -0.698869000     -0.058288000
C       -3.679164000      0.698876000      0.058335000
H        1.524249000     -4.838561000     -0.299468000
H        3.918340000     -3.582682000     -0.667555000
H        3.918337000      3.582708000      0.667857000
H        1.524214000      4.838564000      0.299797000
H       -3.918324000     -3.582701000     -0.667899000
H       -1.524305000     -4.838557000     -0.299941000
H       -4.684264000     -1.132925000     -0.200267000
H       -4.684268000      1.132918000      0.200422000
H       -3.918319000      3.582719000      0.667648000
H       -1.524289000      4.838556000      0.299674000
Zn       0.000012000     -0.000014000     -0.000224000
C        3.679152000     -0.698859000     -0.058412000
C        3.679168000      0.698872000      0.058183000
H        4.684260000     -1.132923000     -0.200391000
H        4.684272000      1.132915000      0.200259000
