37
ZnC20N4H12
C        2.930157000      3.123411000      0.184579000
C        1.710520000      3.765468000     -0.286244000
C        0.711914000      2.730097000     -0.181965000
C        2.672953000      1.693433000      0.362109000
N        1.325515000      1.511381000      0.190200000
C        2.672953000     -1.693411000     -0.361864000
N        1.325512000     -1.511365000     -0.189539000
C        0.711898000     -2.730077000      0.182298000
C        2.930146000     -3.123386000     -0.184545000
C        1.710505000     -3.765448000      0.286366000
C       -0.711967000     -2.730044000      0.181936000
N       -1.325558000     -1.511326000     -0.190225000
C       -2.930206000     -3.123378000     -0.184664000
C       -1.710567000     -3.765444000      0.286083000
C       -2.672970000      1.693375000      0.361912000
N       -1.325520000      1.511329000      0.189659000
C       -0.711945000      2.730056000     -0.182168000
C       -1.710562000      3.765443000     -0.286177000
C       -2.930190000      3.123366000      0.184606000
C       -2.673007000     -1.693393000     -0.362116000
C       -3.679196000     -0.698875000     -0.252066000
C       -3.679174000      0.698864000      0.252433000
H        1.524223000     -4.838549000      0.608974000
H        3.918304000     -3.582706000     -0.273123000
H        3.918317000      3.582726000      0.272889000
H        1.524228000      4.838560000     -0.609075000
H       -3.918362000     -3.582691000     -0.272987000
H       -1.524283000     -4.838563000      0.608851000
H       -4.684312000     -1.132915000     -0.417463000
H       -4.684264000      1.132934000      0.418604000
H       -3.918351000      3.582675000      0.273198000
H       -1.524295000      4.838564000     -0.608748000
Zn       0.000104000     -0.000020000     -0.000224000
C        3.679130000     -0.698855000     -0.252514000
C        3.679132000      0.698878000      0.251999000
H        4.684246000     -1.132899000     -0.418575000
H        4.684232000      1.132925000      0.417495000
