37
CuC20N4H12
C        4.235968000     -0.682735000     -0.112900000
C        4.235616000      0.682682000      0.036151000
C        2.849589000      1.099391000      0.175110000
C        2.850110000     -1.100084000      0.026699000
N        2.029926000     -0.000505000      0.234842000
C        2.426385000     -2.426412000     -0.108834000
C        1.100101000     -2.850183000      0.019276000
N        0.000533000     -2.030008000      0.224331000
C       -1.099357000     -2.849674000      0.173445000
C        0.682774000     -4.236024000     -0.113293000
C       -0.682660000     -4.235704000      0.041682000
C       -2.425562000     -2.425538000      0.002717000
C       -2.849640000     -1.099365000     -0.173138000
N       -2.029902000      0.000518000     -0.232424000
C       -4.235935000      0.682876000      0.111985000
C       -4.235677000     -0.682555000     -0.036780000
C       -1.100118000      2.850127000     -0.020260000
N       -0.000566000      2.029936000     -0.226996000
C        1.099314000      2.849631000     -0.173888000
C        0.682629000      4.235682000     -0.041157000
C       -0.682812000      4.235976000      0.113656000
C        2.425476000      2.425567000     -0.002379000
C       -2.426381000      2.426440000      0.109284000
C       -2.850034000      1.100120000     -0.025607000
H        5.088267000     -1.360888000     -0.299073000
H        5.087618000      1.361340000     -0.021089000
H        3.198470000     -3.198410000     -0.340245000
H        1.360940000     -5.088261000     -0.296260000
H       -1.361292000     -5.087723000     -0.007107000
H       -3.197545000     -3.197479000      0.007038000
H       -5.088257000      1.361195000      0.295815000
H       -5.087721000     -1.361205000      0.018354000
H        1.361291000      5.087691000      0.008605000
H       -1.361053000      5.088259000      0.297442000
H        3.197283000      3.197670000     -0.008085000
H       -3.198138000      3.198153000      0.343310000
Cu       0.000050000     -0.000038000     -0.000187000
