37
CuC20N4H12
C        4.236079000     -0.682758000     -0.225074000
C        4.235387000      0.682629000      0.072575000
C        2.849305000      1.099052000      0.349880000
C        2.850331000     -1.100437000      0.053234000
N        2.029907000     -0.001006000      0.470139000
C        2.426796000     -2.426849000     -0.218202000
C        1.100469000     -2.850469000      0.037974000
N        0.001069000     -2.030048000      0.448178000
C       -1.098977000     -2.849437000      0.346273000
C        0.682811000     -4.236178000     -0.226304000
C       -0.682607000     -4.235528000      0.083188000
C       -2.425140000     -2.425097000      0.004876000
C       -2.849379000     -1.098996000     -0.346865000
N       -2.029845000      0.001041000     -0.465351000
C       -4.236015000      0.683012000      0.223472000
C       -4.235480000     -0.682404000     -0.073835000
C       -1.100507000      2.850358000     -0.039924000
N       -0.001126000      2.029925000     -0.453208000
C        1.098903000      2.849377000     -0.347748000
C        0.682530000      4.235511000     -0.082040000
C       -0.682903000      4.236096000      0.227347000
C        2.424991000      2.425167000     -0.004524000
C       -2.426798000      2.426917000      0.218681000
C       -2.850185000      1.100509000     -0.051161000
H        5.088491000     -1.360609000     -0.596731000
H        5.087218000      1.361474000     -0.041450000
H        3.199000000     -3.198894000     -0.681758000
H        1.360667000     -5.088484000     -0.591235000
H       -1.361417000     -5.087378000     -0.013740000
H       -3.197146000     -3.197017000      0.013785000
H       -5.088492000      1.361172000      0.591334000
H       -5.087373000     -1.361260000      0.036694000
H        1.361387000      5.087353000      0.017238000
H       -1.360930000      5.088476000      0.594519000
H        3.196643000      3.197418000     -0.014811000
H       -3.198366000      3.198373000      0.684848000
Cu       0.000083000     -0.000085000     -0.000198000
