35
PdC19N4H11
C        0.012360000      2.610884000     -1.476771000
C        0.331680000      3.001459000     -2.866305000
C       -0.012780000      1.834503000     -3.635523000
C       -0.404674000      0.723446000     -2.730054000
C       -0.404670000     -0.723195000     -2.730155000
C       -0.012899000     -1.834020000     -3.635652000
C        0.332205000     -3.001140000     -2.866637000
C        0.011687000     -2.610897000     -1.477051000
N       -0.255256000     -1.250748000     -1.470362000
N       -0.255078000      1.250628000     -1.470221000
Pd       0.292740000     -0.000260000      0.022539000
N       -0.509979000     -1.450619000      1.353254000
C       -0.205184000     -1.263702000      2.705633000
C        0.267212000     -2.580798000      3.318223000
C        0.073484000     -3.509891000      2.302517000
C       -0.403425000     -2.793496000      1.040925000
C       -0.177528000     -3.339114000     -0.259857000
C       -0.092123000      0.000173000      3.336030000
N       -0.509445000      1.450553000      1.353260000
C       -0.205289000      1.264151000      2.705669000
C        0.267580000      2.581284000      3.318138000
C        0.072967000      3.510089000      2.302160000
C       -0.402969000      2.793461000      1.040863000
C       -0.175974000      3.339193000     -0.259855000
H        0.635987000      4.026248000     -3.239445000
H        0.053150000      1.776439000     -4.724523000
H        0.052893000     -1.775696000     -4.724645000
H        0.636548000     -4.025765000     -3.240123000
H        0.693564000     -2.772362000      4.391919000
H        0.332820000     -4.596498000      2.401647000
H        0.037869000     -4.430741000     -0.326882000
H        0.284336000      0.000113000      4.430063000
H        0.694108000      2.773077000      4.391667000
H        0.332036000      4.596797000      2.400592000
H        0.036877000      4.431171000     -0.326859000
