35
PdC19N4H11
C       -0.225910000      2.610898000     -1.476801000
C       -0.211222000      3.001487000     -2.866287000
C        0.366102000      1.834459000     -3.635477000
C        0.278574000      0.723394000     -2.730150000
C       -0.277888000     -0.723291000     -2.730061000
C       -0.366295000     -1.834328000     -3.635424000
C        0.211671000     -3.001294000     -2.866275000
C        0.226699000     -2.610907000     -1.476765000
N       -0.207268000     -1.250666000     -1.470244000
N        0.207314000      1.250852000     -1.470195000
Pd      -0.000212000     -0.000088000      0.022439000
N       -0.012255000     -1.450817000      1.353210000
C        0.261356000     -1.264036000      2.705537000
C        0.262656000     -2.581060000      3.318297000
C       -0.337606000     -3.510215000      2.302487000
C       -0.217975000     -2.793822000      1.041003000
C        0.212316000     -3.339378000     -0.259847000
C        0.000109000      0.000055000      3.335826000
N        0.012537000      1.450809000      1.353072000
C       -0.261535000      1.263963000      2.705527000
C       -0.262358000      2.581172000      3.318182000
C        0.337449000      3.510275000      2.302404000
C        0.216947000      2.793657000      1.040829000
C       -0.212500000      3.339523000     -0.259791000
H       -0.385865000      4.026074000     -3.239449000
H        0.624360000      1.776587000     -4.724537000
H       -0.625223000     -1.776250000     -4.724321000
H        0.385442000     -4.025979000     -3.239501000
H        0.448372000     -2.772622000      4.392041000
H       -0.638508000     -4.597018000      2.401487000
H        0.397423000     -4.431017000     -0.327210000
H       -0.001924000      0.000385000      4.429365000
H       -0.447078000      2.773029000      4.392025000
H        0.639034000      4.596925000      2.401356000
H       -0.396845000      4.431289000     -0.326735000
