35
PdC19N4H11
C        0.184574000      2.610910000     -1.476853000
C        0.065894000      3.001249000     -2.866479000
C       -0.258810000      1.834261000     -3.635547000
C       -0.301774000      0.723276000     -2.730032000
C       -0.301788000     -0.723281000     -2.730005000
C       -0.258987000     -1.834266000     -3.635514000
C        0.066281000     -3.001244000     -2.866481000
C        0.183805000     -2.610909000     -1.476813000
N       -0.072656000     -1.250698000     -1.470192000
N       -0.072432000      1.250736000     -1.470243000
Pd       0.011714000      0.000040000      0.022509000
N        0.036885000     -1.450751000      1.353124000
C       -0.263442000     -1.263988000      2.705579000
C       -0.176990000     -2.580930000      3.318227000
C        0.226190000     -3.510053000      2.302411000
C        0.305879000     -2.793630000      1.040935000
C        0.444566000     -3.339412000     -0.259917000
C       -0.492431000      0.000011000      3.335906000
N        0.037183000      1.450727000      1.353156000
C       -0.263697000      1.263905000      2.705659000
C       -0.176638000      2.580970000      3.318252000
C        0.225649000      3.510049000      2.302376000
C        0.306183000      2.793507000      1.040893000
C        0.446148000      3.339261000     -0.259883000
H        0.184505000      4.025844000     -3.239931000
H       -0.422278000      1.776221000     -4.724493000
H       -0.422585000     -1.776116000     -4.724441000
H        0.184876000     -4.025873000     -3.239807000
H       -0.361986000     -2.772460000      4.392067000
H        0.404180000     -4.596720000      2.401143000
H        0.671711000     -4.430997000     -0.327004000
H       -0.743320000     -0.000027000      4.429093000
H       -0.361310000      2.772779000      4.392095000
H        0.403516000      4.596729000      2.401242000
H        0.670839000      4.431251000     -0.326959000
