35
PdC19N4H11
C       -0.218950000      2.610906000     -1.476865000
C       -0.445296000      3.001255000     -2.866475000
C       -0.359540000      1.834243000     -3.635507000
C       -0.089942000      0.723266000     -2.730058000
C        0.090526000     -0.723285000     -2.729985000
C        0.359227000     -1.834262000     -3.635482000
C        0.445727000     -3.001280000     -2.866427000
C        0.219799000     -2.610925000     -1.476837000
N        0.043784000     -1.250762000     -1.470176000
N       -0.043746000      1.250780000     -1.470245000
Pd      -0.000180000      0.000010000      0.022507000
N       -0.029927000     -1.450685000      1.353138000
C       -0.161908000     -1.263956000      2.705537000
C       -0.414170000     -2.580960000      3.318229000
C       -0.378024000     -3.510045000      2.302387000
C       -0.112357000     -2.793590000      1.040883000
C        0.081970000     -3.339300000     -0.259925000
C        0.000103000      0.000015000      3.335912000
N        0.030157000      1.450691000      1.353176000
C        0.161645000      1.263937000      2.705585000
C        0.414352000      2.580992000      3.318234000
C        0.377853000      3.510029000      2.302446000
C        0.111385000      2.793583000      1.040913000
C       -0.082004000      3.339359000     -0.259903000
H       -0.636031000      4.025728000     -3.239935000
H       -0.479134000      1.776315000     -4.724467000
H        0.478049000     -1.776112000     -4.724499000
H        0.635586000     -4.025901000     -3.239831000
H       -0.585954000     -2.772498000      4.392061000
H       -0.515762000     -4.596820000      2.401077000
H        0.102163000     -4.431133000     -0.327048000
H       -0.001914000     -0.000195000      4.429447000
H        0.587012000      2.772587000      4.391929000
H        0.516252000      4.596725000      2.401232000
H       -0.101315000      4.431215000     -0.326927000
