35
PdC19N4H11
C        0.038120000      2.610864000     -1.476771000
C       -0.288404000      3.001229000     -2.866433000
C       -0.102652000      1.834269000     -3.635437000
C        0.332348000      0.723216000     -2.730034000
C        0.332552000     -0.723239000     -2.730041000
C       -0.103635000     -1.834308000     -3.635538000
C       -0.288567000     -3.001236000     -2.866435000
C        0.037973000     -2.610823000     -1.476741000
N        0.426760000     -1.250692000     -1.470198000
N        0.425906000      1.250756000     -1.470185000
Pd      -0.045528000      0.000008000      0.022461000
N       -0.386089000     -1.450803000      1.353098000
C       -0.221594000     -1.263934000      2.705535000
C        0.238608000     -2.580906000      3.318161000
C        0.344570000     -3.510053000      2.302431000
C       -0.051675000     -2.793674000      1.040943000
C       -0.025434000     -3.339344000     -0.259891000
C       -0.255101000      0.000019000      3.335856000
N       -0.386815000      1.450741000      1.353204000
C       -0.221893000      1.263979000      2.705645000
C        0.239934000      2.581016000      3.318270000
C        0.344611000      3.510045000      2.302432000
C       -0.052007000      2.793563000      1.040931000
C       -0.024520000      3.339339000     -0.259891000
H       -0.614043000      4.025644000     -3.239901000
H       -0.293364000      1.776405000     -4.724385000
H       -0.295437000     -1.776542000     -4.724477000
H       -0.614884000     -4.025757000     -3.239705000
H        0.490386000     -2.772416000      4.391909000
H        0.701412000     -4.596638000      2.401433000
H       -0.025473000     -4.431195000     -0.327008000
H       -0.086926000     -0.000045000      4.429609000
H        0.492980000      2.772775000      4.391897000
H        0.701960000      4.596703000      2.401208000
H       -0.026593000      4.431189000     -0.326967000
