35
PdC19N4H11
C       -0.044662000      2.622100000     -1.477037000
C        0.041036000      2.996229000     -2.871261000
C        0.221462000      1.820439000     -3.626153000
C        0.163920000      0.722084000     -2.707774000
C       -0.163514000     -0.722223000     -2.707737000
C       -0.222445000     -1.820616000     -3.626122000
C       -0.040167000     -2.996354000     -2.871277000
C        0.046607000     -2.622247000     -1.477015000
N       -0.184410000     -1.260780000     -1.453636000
N        0.185288000      1.260756000     -1.453625000
Pd      -0.000358000      0.000086000      0.031769000
N       -0.439139000     -1.468963000      1.337718000
C       -0.427508000     -1.271264000      2.686871000
C       -0.248748000     -2.585754000      3.307409000
C        0.217782000     -3.522211000      2.297713000
C        0.073241000     -2.814378000      1.031457000
C        0.394954000     -3.362738000     -0.268117000
C        0.000777000      0.000057000      3.307778000
N        0.438855000      1.468889000      1.337762000
C        0.427633000      1.271259000      2.686845000
C        0.249066000      2.585744000      3.307522000
C       -0.218659000      3.522175000      2.297918000
C       -0.074763000      2.814523000      1.031523000
C       -0.394424000      3.362673000     -0.268033000
H        0.001735000      4.016408000     -3.256585000
H        0.313464000      1.747395000     -4.714305000
H       -0.316147000     -1.747530000     -4.714219000
H       -0.001732000     -4.016543000     -3.256627000
H       -0.272770000     -2.771668000      4.382243000
H        0.584294000     -4.608102000      2.404679000
H        0.848183000     -4.453703000     -0.339862000
H       -0.000714000     -0.000375000      4.401493000
H        0.274278000      2.771333000      4.382377000
H       -0.584928000      4.608247000      2.404896000
H       -0.846663000      4.453923000     -0.339729000
