37
ZnC20N4H12
C       -0.374841000      1.759702000      3.782203000
C        0.165933000      2.956315000      3.088462000
C        0.205928000      2.621220000      1.680273000
C       -0.265720000      0.716471000      2.789464000
N       -0.213701000      1.267680000      1.558852000
C        0.265243000     -0.716314000      2.789392000
N        0.213361000     -1.267394000      1.558752000
C       -0.205840000     -2.620981000      1.679933000
C        0.374924000     -1.759757000      3.781968000
C       -0.165718000     -2.956256000      3.088110000
C        0.193921000     -2.969937000     -0.795046000
N        0.170666000     -1.661608000     -1.266771000
C       -0.102758000     -3.110786000     -3.051297000
C        0.249016000     -3.874722000     -1.914947000
C        0.131632000      1.730761000     -2.632420000
N       -0.170714000      1.661358000     -1.267218000
C       -0.193492000      2.969600000     -0.795074000
C       -0.248464000      3.874704000     -1.914864000
C        0.102600000      3.111088000     -3.051404000
C       -0.131733000     -1.730651000     -2.632031000
C       -0.201760000     -0.690854000     -3.599239000
C        0.202247000      0.690922000     -3.599554000
C        0.314747000      3.422426000      0.537114000
C       -0.315020000     -3.422549000      0.537214000
H       -0.383882000     -3.962293000      3.506560000
H        0.630230000     -1.622380000      4.862591000
H       -0.629799000      1.622121000      4.862857000
H        0.384445000      3.962257000      3.506963000
H        0.669903000      4.507514000      0.669479000
H       -0.671084000     -4.507284000      0.670243000
H       -0.251520000     -3.445682000     -4.087431000
H        0.396957000     -4.961176000     -1.833117000
H       -0.403909000     -1.109373000     -4.610581000
H        0.403748000      1.109118000     -4.611160000
H        0.251270000      3.446293000     -4.087441000
H       -0.396068000      4.961164000     -1.832808000
Zn      -0.000159000     -0.000094000     -0.079986000
