37
ZnC20N4H12
C       -0.364835000      1.759942000      3.782203000
C       -0.161811000      2.956423000      3.088280000
C        0.109248000      2.621062000      1.680121000
C       -0.183082000      0.716443000      2.789658000
N        0.084939000      1.267504000      1.558948000
C       -0.182979000     -0.716416000      2.789658000
N        0.085229000     -1.267456000      1.558926000
C        0.109416000     -2.621011000      1.680091000
C       -0.364630000     -1.759907000      3.782180000
C       -0.161438000     -2.956390000      3.088244000
C        0.256305000     -2.969919000     -0.795146000
N        0.083952000     -1.661618000     -1.267079000
C       -0.113580000     -3.111088000     -3.051449000
C        0.180058000     -3.874872000     -1.915021000
C       -0.168778000      1.730805000     -2.632286000
N        0.084114000      1.661600000     -1.267056000
C        0.256280000      2.969882000     -0.795114000
C        0.180104000      3.874862000     -1.914984000
C       -0.113314000      3.111070000     -3.051420000
C       -0.168925000     -1.730837000     -2.632297000
C       -0.490310000     -0.690918000     -3.599419000
C       -0.490233000      0.690894000     -3.599400000
C        0.286999000      3.422502000      0.537158000
C        0.286878000     -3.422507000      0.537132000
H       -0.217458000     -3.962471000      3.506530000
H       -0.608610000     -1.622542000      4.862845000
H       -0.608707000      1.622579000      4.862883000
H       -0.217839000      3.962493000      3.506603000
H        0.357645000      4.507446000      0.669947000
H        0.357476000     -4.507452000      0.669977000
H       -0.283786000     -3.446116000     -4.087541000
H        0.289205000     -4.961324000     -1.833075000
H       -0.766833000     -1.109173000     -4.610843000
H       -0.766724000      1.109164000     -4.610818000
H       -0.283328000      3.446133000     -4.087519000
H        0.289290000      4.961314000     -1.833050000
Zn       0.203949000     -0.000018000     -0.079996000
