37
ZnC20N4H12
C        0.296949000      1.759918000      3.782197000
C        0.426277000      2.956413000      3.088280000
C        0.319938000      2.621104000      1.680149000
C        0.125300000      0.716461000      2.789660000
N        0.185883000      1.267552000      1.558962000
C       -0.125703000     -0.716392000      2.789616000
N       -0.185811000     -1.267448000      1.558906000
C       -0.319762000     -2.621023000      1.680051000
C       -0.297260000     -1.759915000      3.782158000
C       -0.426356000     -2.956392000      3.088214000
C        0.057239000     -2.969961000     -0.795134000
N        0.056774000     -1.661686000     -1.267047000
C        0.469580000     -3.111098000     -3.051435000
C        0.327124000     -3.874914000     -1.914973000
C       -0.261152000      1.730813000     -2.632286000
N       -0.056624000      1.661596000     -1.267060000
C       -0.056974000      2.969870000     -0.795086000
C       -0.326930000      3.874870000     -1.914964000
C       -0.469824000      3.111094000     -3.051404000
C        0.261149000     -1.730849000     -2.632291000
C        0.148798000     -0.690912000     -3.599359000
C       -0.148609000      0.690906000     -3.599370000
C        0.188683000      3.422514000      0.537170000
C       -0.189208000     -3.422497000      0.537130000
H       -0.555112000     -3.962465000      3.506554000
H       -0.305630000     -1.622572000      4.862811000
H        0.305315000      1.622597000      4.862849000
H        0.555103000      3.962427000      3.506651000
H        0.219433000      4.507458000      0.669799000
H       -0.221228000     -4.507376000      0.670079000
H        0.665560000     -3.446192000     -4.087527000
H        0.390053000     -4.961376000     -1.833121000
H        0.267925000     -1.109187000     -4.610907000
H       -0.268774000      1.109216000     -4.610820000
H       -0.665962000      3.446175000     -4.087499000
H       -0.389818000      4.961332000     -1.833018000
Zn       0.000057000     -0.000014000     -0.080024000
