37
CuC20N4H12
C        4.235701000     -0.681860000      0.295464000
C        4.235591000      0.683621000     -0.209407000
C        2.849611000      1.099976000     -0.144028000
C        2.849739000     -1.099371000      0.097222000
N        2.029749000      0.000484000      0.119323000
C        2.426014000     -2.425933000     -0.451154000
C        1.099677000     -2.850209000      0.067602000
N        0.000243000     -2.029794000      0.150192000
C       -1.099679000     -2.849273000     -0.125519000
C        0.681727000     -4.236098000      0.256264000
C       -0.683779000     -4.235240000     -0.147560000
C       -2.425902000     -2.426077000     -0.049658000
C       -2.849851000     -1.100168000      0.144969000
N       -2.030105000     -0.000323000     -0.119223000
C       -4.236243000      0.681402000     -0.295706000
C       -4.235842000     -0.684078000      0.209441000
C       -1.099695000      2.850636000     -0.067616000
N       -0.000426000      2.030043000     -0.150488000
C        1.099835000      2.849345000      0.126112000
C        0.684378000      4.235319000      0.147466000
C       -0.681119000      4.236594000     -0.256581000
C        2.425907000      2.425985000      0.049938000
C       -2.426094000      2.426067000      0.451561000
C       -2.850205000      1.099433000     -0.097147000
H        5.088283000     -1.360067000      0.568693000
H        5.087486000      1.362328000     -0.388648000
H        3.198450000     -3.197712000     -0.825370000
H        1.359503000     -5.089062000      0.495791000
H       -1.362979000     -5.086750000     -0.269868000
H       -3.197488000     -3.198375000     -0.091615000
H       -5.088934000      1.359190000     -0.569806000
H       -5.087705000     -1.363000000      0.388020000
H        1.363907000      5.086623000      0.269364000
H       -1.358402000      5.089820000     -0.496717000
H        3.197827000      3.198004000      0.090451000
H       -3.197980000      3.197411000      0.828328000
Cu       0.000135000     -0.000083000     -0.000176000
