37
CuC20N4H12
C        4.235755000     -0.682728000      0.357540000
C        4.235779000      0.682795000      0.348653000
C        2.849815000      1.099766000     -0.080564000
C        2.849739000     -1.099685000     -0.068388000
N        2.029787000      0.000082000     -0.234993000
C        2.425972000     -2.426047000     -0.289694000
C        1.099725000     -2.850015000     -0.254090000
N        0.000077000     -2.030022000      0.006274000
C       -1.099695000     -2.849945000      0.258979000
C        0.682651000     -4.235952000     -0.202860000
C       -0.682767000     -4.235898000      0.185566000
C       -2.425934000     -2.425957000      0.305150000
C       -2.849827000     -1.099712000      0.081517000
N       -2.029867000     -0.000001000      0.234991000
C       -4.235761000      0.682730000     -0.357870000
C       -4.235794000     -0.682732000     -0.348629000
C       -1.099783000      2.849980000      0.254048000
N       -0.000074000      2.029967000     -0.006466000
C        1.099649000      2.849853000     -0.258292000
C        0.682754000      4.235871000     -0.185630000
C       -0.682679000      4.235896000      0.202487000
C        2.425913000      2.426007000     -0.304760000
C       -2.425960000      2.426031000      0.289963000
C       -2.849813000      1.099737000      0.068363000
H        5.087929000     -1.361437000      0.629013000
H        5.087982000      1.361374000      0.611646000
H        3.198094000     -3.197890000     -0.340874000
H        1.361121000     -5.087934000     -0.391275000
H       -1.361343000     -5.088094000      0.359242000
H       -3.197932000     -3.197901000      0.359263000
H       -5.087880000      1.361218000     -0.630254000
H       -5.087975000     -1.361104000     -0.612258000
H        1.361305000      5.088013000     -0.359704000
H       -1.361138000      5.088004000      0.390217000
H        3.197743000      3.198006000     -0.360279000
H       -3.197836000      3.197949000      0.343658000
Cu       0.000069000     -0.000011000     -0.000142000
