33
NiC18N4H10
C       -0.319342000      1.893430000      3.485694000
C       -0.325543000      3.028858000      2.665308000
C        0.002526000      2.580437000      1.293835000
C        0.023562000      0.751763000      2.617396000
N        0.245701000      1.212375000      1.358028000
C        0.023465000     -0.751639000      2.617451000
N        0.245866000     -1.212464000      1.358166000
C        0.002947000     -2.580416000      1.293977000
C       -0.319666000     -1.893291000      3.485588000
C       -0.327910000     -3.028738000      2.665301000
C       -0.088491000     -3.229540000      0.030152000
C        0.002670000     -2.580534000     -1.233680000
N        0.246860000     -1.212495000     -1.297868000
C       -0.319813000     -1.893442000     -3.425403000
C       -0.328596000     -3.028811000     -2.605101000
C        0.024529000      0.751753000     -2.557138000
N        0.247211000      1.212353000     -1.297801000
C        0.003162000      2.580441000     -1.233490000
C       -0.326166000      3.028820000     -2.604925000
C       -0.320715000      1.893483000     -3.425347000
C       -0.089951000      3.229776000      0.030161000
C        0.024692000     -0.751675000     -2.557152000
H       -0.552870000      1.883124000      4.574436000
H       -0.560455000      4.065619000      3.000620000
H       -0.553690000     -1.883046000      4.574276000
H       -0.565124000     -4.064902000      3.001089000
H       -0.344992000     -4.323979000      0.030201000
H       -0.563019000      4.065414000     -2.940293000
H       -0.556240000      1.883381000     -4.513904000
H       -0.352571000      4.323068000      0.030147000
H       -0.553496000     -1.882939000     -4.514314000
H       -0.565603000     -4.065232000     -2.940847000
Ni       0.397483000     -0.000089000      0.029965000
