33
NiC18N4H10
C        3.455489000      1.893424000      0.319898000
C        2.635136000      3.028837000      0.326972000
C        1.263745000      2.580406000     -0.003386000
C        2.587348000      0.751701000     -0.023786000
N        1.327983000      1.212399000     -0.246668000
C        2.587348000     -0.751701000     -0.023794000
N        1.327983000     -1.212399000     -0.246664000
C        1.263745000     -2.580406000     -0.003414000
C        3.455489000     -1.893424000      0.319832000
C        2.635136000     -3.028837000      0.326888000
C        0.000000000     -3.229656000      0.089492000
C       -1.263745000     -2.580406000     -0.003378000
N       -1.327983000     -1.212399000     -0.246656000
C       -3.455489000     -1.893424000      0.319892000
C       -2.635136000     -3.028837000      0.326970000
C       -2.587348000      0.751701000     -0.023798000
N       -1.327983000      1.212399000     -0.246650000
C       -1.263745000      2.580406000     -0.003404000
C       -2.635136000      3.028837000      0.326894000
C       -3.455489000      1.893424000      0.319822000
C        0.000000000      3.229656000      0.089488000
C       -2.587348000     -0.751701000     -0.023784000
H        4.544157000      1.883176000      0.554500000
H        2.970683000      4.065194000      0.564174000
H        4.544157000     -1.883176000      0.554396000
H        2.970683000     -4.065194000      0.564044000
H        0.000000000     -4.323811000      0.347392000
H       -2.970683000      4.065194000      0.564056000
H       -4.544157000      1.883176000      0.554384000
H        0.000000000      4.323811000      0.347386000
H       -4.544157000     -1.883176000      0.554484000
H       -2.970683000     -4.065194000      0.564168000
Ni       0.000000000      0.000000000     -0.397080000
