33
NiC18N4H10
C       -0.069310000      1.893202000      3.485608000
C        0.223417000      3.028608000      2.665646000
C        0.108330000      2.580629000      1.293825000
C       -0.174458000      0.751487000      2.617244000
N        0.134165000      1.212401000      1.358122000
C       -0.174601000     -0.751963000      2.617841000
N        0.134170000     -1.212642000      1.358354000
C        0.108645000     -2.580562000      1.294221000
C       -0.069592000     -1.893515000      3.486042000
C        0.221030000     -3.029120000      2.665495000
C       -0.433581000     -3.229920000      0.029892000
C        0.107694000     -2.580622000     -1.233472000
N        0.133846000     -1.212243000     -1.298096000
C       -0.068909000     -1.894016000     -3.425537000
C        0.220952000     -3.029141000     -2.605179000
C       -0.174361000      0.751907000     -2.557328000
N        0.134345000      1.212939000     -1.297857000
C        0.108248000      2.580927000     -1.234002000
C        0.223282000      3.028952000     -2.605411000
C       -0.069937000      1.893127000     -3.425555000
C       -0.435111000      3.229920000      0.030411000
C       -0.174220000     -0.751743000     -2.557162000
H       -0.099528000      1.882636000      4.574280000
H        0.440781000      4.064595000      3.001422000
H       -0.100204000     -1.883488000      4.574726000
H        0.436180000     -4.065530000      3.001167000
H       -1.082756000     -4.324857000      0.029593000
H        0.439981000      4.065062000     -2.941251000
H       -0.100904000      1.882249000     -4.514220000
H       -1.090309000      4.321950000      0.030829000
H       -0.097972000     -1.883999000     -4.514258000
H        0.437555000     -4.065386000     -2.940793000
Ni      -0.007155000      0.000387000      0.029973000
