33
NiC18N4H10
C        3.455489000      1.893424000     -0.270480000
C        2.635136000      3.028837000      0.138044000
C        1.263745000      2.580406000      0.255456000
C        2.587348000      0.751701000     -0.335866000
N        1.327983000      1.212399000     -0.059918000
C        2.587348000     -0.751701000     -0.335858000
N        1.327983000     -1.212399000     -0.059902000
C        1.263745000     -2.580406000      0.255468000
C        3.455489000     -1.893424000     -0.270478000
C        2.635136000     -3.028837000      0.138048000
C        0.000000000     -3.229656000      0.485956000
C       -1.263745000     -2.580406000      0.255454000
N       -1.327983000     -1.212399000     -0.059944000
C       -3.455489000     -1.893424000     -0.270476000
C       -2.635136000     -3.028837000      0.138060000
C       -2.587348000      0.751701000     -0.335886000
N       -1.327983000      1.212399000     -0.059952000
C       -1.263745000      2.580406000      0.255456000
C       -2.635136000      3.028837000      0.138080000
C       -3.455489000      1.893424000     -0.270456000
C        0.000000000      3.229656000      0.485950000
C       -2.587348000     -0.751701000     -0.335888000
H        4.544157000      1.883176000     -0.465872000
H        2.970683000      4.065194000      0.296768000
H        4.544157000     -1.883176000     -0.465882000
H        2.970683000     -4.065194000      0.296776000
H        0.000000000     -4.323811000      0.778278000
H       -2.970683000      4.065194000      0.296834000
H       -4.544157000      1.883176000     -0.465828000
H        0.000000000      4.323811000      0.778278000
H       -4.544157000     -1.883176000     -0.465858000
H       -2.970683000     -4.065194000      0.296806000
Ni       0.000000000      0.000000000      0.017412000
