33
NiC18N4H10
C        0.270244000      1.893390000      3.485640000
C       -0.136933000      3.028824000      2.665230000
C       -0.255410000      2.580353000      1.293887000
C        0.336166000      0.751647000      2.617478000
N        0.060575000      1.212369000      1.358192000
C        0.335991000     -0.751769000      2.617443000
N        0.060450000     -1.212402000      1.358098000
C       -0.255197000     -2.580400000      1.293973000
C        0.269998000     -1.893391000      3.485630000
C       -0.139292000     -3.028800000      2.665413000
C       -0.484851000     -3.229724000      0.030240000
C       -0.256608000     -2.580274000     -1.233700000
N        0.059014000     -1.212365000     -1.297816000
C        0.271163000     -1.893400000     -3.425289000
C       -0.139134000     -3.028789000     -2.604967000
C        0.336273000      0.751613000     -2.557196000
N        0.059645000      1.212377000     -1.297943000
C       -0.256008000      2.580415000     -1.233508000
C       -0.136988000      3.028894000     -2.604981000
C        0.269949000      1.893545000     -3.425405000
C       -0.486227000      3.229572000      0.030109000
C        0.336408000     -0.751757000     -2.557264000
H        0.465564000      1.883354000      4.574254000
H       -0.294047000      4.065275000      3.001158000
H        0.465006000     -1.882890000      4.574274000
H       -0.298600000     -4.065162000      3.000697000
H       -0.775822000     -4.324239000      0.030167000
H       -0.294869000      4.065236000     -2.940959000
H        0.465046000      1.883637000     -4.514196000
H       -0.783485000      4.322708000      0.030125000
H        0.468260000     -1.882779000     -4.513770000
H       -0.296975000     -4.065288000     -2.940315000
Ni      -0.017507000      0.000019000      0.029943000
