33
NiC18N4H10
C       -0.195848000      1.893702000      3.485866000
C        0.047883000      3.028968000      2.665674000
C        0.438892000      2.580697000      1.293995000
C        0.169232000      0.751841000      2.617378000
N        0.598703000      1.212395000      1.358188000
C       -0.169091000     -0.751625000      2.617843000
N       -0.598866000     -1.212386000      1.357962000
C       -0.439515000     -2.579958000      1.294041000
C        0.195792000     -1.892725000      3.485620000
C       -0.048002000     -3.028500000      2.664807000
C        0.001057000     -3.229678000      0.029502000
C        0.438106000     -2.580954000     -1.233522000
N        0.597356000     -1.212441000     -1.298070000
C       -0.195233000     -1.894132000     -3.425587000
C        0.046012000     -3.029149000     -2.605645000
C       -0.168275000      0.751627000     -2.557338000
N       -0.597875000      1.212455000     -1.297729000
C       -0.439392000      2.580123000     -1.233488000
C       -0.046260000      3.028814000     -2.604627000
C        0.194951000      1.893175000     -3.425181000
C       -0.000169000      3.229676000      0.030819000
C        0.169254000     -0.751769000     -2.556878000
H       -0.602336000      1.883140000      4.574656000
H       -0.128453000      4.065711000      3.000762000
H        0.602726000     -1.882636000      4.574260000
H        0.129616000     -4.065070000      2.999915000
H        0.002932000     -4.323831000      0.028501000
H        0.131963000      4.064908000     -2.940617000
H        0.600874000      1.883037000     -4.514080000
H       -0.005193000      4.323814000      0.029545000
H       -0.600268000     -1.883589000     -4.514658000
H       -0.130697000     -4.065486000     -2.941559000
Ni       0.000197000     -0.000029000      0.029953000
